Version 4
SHEET 1 1924 1012
WIRE 48 -384 -208 -384
WIRE 384 -384 48 -384
WIRE 1104 -384 384 -384
WIRE 1488 -384 1104 -384
WIRE -208 -336 -208 -384
WIRE 48 -320 48 -384
WIRE 384 -320 384 -384
WIRE -208 -224 -208 -256
WIRE 1104 -176 1104 -384
WIRE 48 -128 48 -240
WIRE 1040 -128 48 -128
WIRE 1488 -80 1488 -384
WIRE 1104 -32 1104 -80
WIRE 1296 -32 1104 -32
WIRE 1424 -32 1296 -32
WIRE 1296 32 1296 -32
WIRE 1104 48 1104 -32
WIRE 1104 48 1024 48
WIRE 1104 64 1104 48
WIRE 1488 80 1488 16
WIRE 1488 80 1360 80
WIRE 672 96 624 96
WIRE 800 96 736 96
WIRE 896 96 864 96
WIRE 1488 96 1488 80
WIRE 1024 112 1024 48
WIRE 1040 112 1024 112
WIRE 48 176 48 -128
WIRE 384 176 384 -240
WIRE -16 224 -192 224
WIRE 576 224 448 224
WIRE 624 224 624 96
WIRE 624 224 576 224
WIRE 720 224 624 224
WIRE 896 224 896 96
WIRE 896 224 800 224
WIRE 1296 224 1296 128
WIRE 1296 224 896 224
WIRE 1328 224 1296 224
WIRE 1488 224 1488 176
WIRE 1488 224 1328 224
WIRE 1648 224 1488 224
WIRE 1872 224 1728 224
WIRE 1488 272 1488 224
WIRE 48 304 48 272
WIRE 112 304 48 304
WIRE 240 304 192 304
WIRE 384 304 384 272
WIRE 384 304 304 304
WIRE 1104 304 1104 160
WIRE 1104 304 1024 304
WIRE 1104 320 1104 304
WIRE 48 336 48 304
WIRE 384 336 384 304
WIRE 1328 336 1328 224
WIRE -192 352 -192 224
WIRE 1024 368 1024 304
WIRE 1040 368 1024 368
WIRE 1488 384 1488 352
WIRE 1488 384 1392 384
WIRE 1488 432 1488 384
WIRE -192 464 -192 432
WIRE 48 480 48 416
WIRE 224 480 48 480
WIRE 384 480 384 416
WIRE 384 480 224 480
WIRE 1104 480 1104 416
WIRE 1328 480 1328 432
WIRE 1328 480 1104 480
WIRE 1424 480 1328 480
WIRE 1872 480 1872 224
WIRE 576 560 576 224
WIRE 1104 560 1104 480
WIRE 224 576 224 480
WIRE 224 736 224 656
WIRE 256 736 224 736
WIRE 576 736 576 640
WIRE 576 736 256 736
WIRE 1104 736 1104 640
WIRE 1104 736 576 736
WIRE 1488 736 1488 528
WIRE 1488 736 1104 736
WIRE 1872 736 1872 560
WIRE 1872 736 1488 736
WIRE 256 784 256 736
WIRE 256 896 256 864
FLAG -208 -224 0
FLAG 256 896 0
FLAG -192 464 0
SYMBOL res 32 -336 R0
SYMATTR InstName R1
SYMATTR Value 6k
SYMBOL res 368 -336 R0
SYMATTR InstName R2
SYMATTR Value 6k
SYMBOL res 32 320 R0
SYMATTR InstName R3
SYMATTR Value 275
SYMBOL res 368 320 R0
SYMATTR InstName R4
SYMATTR Value 275
SYMBOL npn -16 176 R0
SYMATTR InstName Q1
SYMATTR Value 2N3904
SYMBOL res 208 560 R0
SYMATTR InstName R5
SYMATTR Value 5.85k
SYMBOL npn 448 176 M0
SYMATTR InstName Q2
SYMATTR Value 2N3904
SYMBOL res 560 544 R0
SYMATTR InstName R6
SYMATTR Value 2k
SYMBOL res 816 208 R90
WINDOW 0 0 56 VBottom 2
WINDOW 3 32 56 VTop 2
SYMATTR InstName R7
SYMATTR Value 18k
SYMBOL cap 736 80 R90
WINDOW 0 0 32 VBottom 2
WINDOW 3 32 32 VTop 2
SYMATTR InstName C1
SYMATTR Value 50p
SYMBOL npn 1040 -176 R0
SYMATTR InstName Q3
SYMATTR Value 2N3904
SYMBOL npn 1040 64 R0
SYMATTR InstName Q4
SYMATTR Value 2N3904
SYMBOL npn 1040 320 R0
SYMATTR InstName Q5
SYMATTR Value 2N3904
SYMBOL res 1088 544 R0
SYMATTR InstName R8
SYMATTR Value 2k
SYMBOL npn 1424 -80 R0
SYMATTR InstName Q6
SYMATTR Value 2N3904
SYMBOL npn 1360 32 M0
SYMATTR InstName Q7
SYMATTR Value 2N3904
SYMBOL pnp 1392 432 R180
SYMATTR InstName Q8
SYMATTR Value 2N3906
SYMBOL pnp 1424 528 M180
SYMATTR InstName Q9
SYMATTR Value 2N3906
SYMBOL res 1472 80 R0
SYMATTR InstName R9
SYMATTR Value 5
SYMBOL res 1472 256 R0
SYMATTR InstName R10
SYMATTR Value 5
SYMBOL res 1744 208 R90
WINDOW 0 0 56 VBottom 2
WINDOW 3 32 56 VTop 2
SYMATTR InstName R11
SYMATTR Value 100k
SYMBOL res 1888 576 R180
WINDOW 0 36 76 Left 2
WINDOW 3 36 40 Left 2
SYMATTR InstName R12
SYMATTR Value 50
SYMBOL res 208 288 R90
WINDOW 0 0 56 VBottom 2
WINDOW 3 32 56 VTop 2
SYMATTR InstName R13
SYMATTR Value 160
SYMBOL cap 304 288 R90
WINDOW 0 0 32 VBottom 2
WINDOW 3 32 32 VTop 2
SYMATTR InstName C2
SYMATTR Value 330p
SYMBOL cap 864 80 R90
WINDOW 0 0 32 VBottom 2
WINDOW 3 32 32 VTop 2
SYMATTR InstName C3
SYMATTR Value 10p
SYMBOL voltage -208 -352 R0
WINDOW 123 0 0 Left 0
WINDOW 39 0 0 Left 0
SYMATTR InstName V1
SYMATTR Value 12
SYMBOL voltage 256 880 R180
WINDOW 0 24 96 Left 2
WINDOW 3 24 16 Left 2
WINDOW 123 0 0 Left 0
WINDOW 39 0 0 Left 0
SYMATTR InstName V2
SYMATTR Value 12
SYMBOL voltage -192 336 R0
SYMATTR InstName V3
TEXT -200 184 Left 2 ;needs biasing
TEXT 80 -480 Left 2 ;want output centered at 6V\nbiasing to 2mA from BK3001\nR=(12-6)/1mA=6k
TEXT -216 544 Left 2 ;choose diff gain G=10\nre=25mV/Ic\n10=6k/(2(Re+re)) =>Re=275
TEXT -288 688 Left 2 ;choose common mode gain of 0.5\n0.5=6k/(2Rtail+Re+re) => Rtail=5.85k
TEXT 144 360 Left 2 ;from app notes
