Version 4
SHEET 1 2500 740
WIRE 432 -624 128 -624
WIRE 688 -624 432 -624
WIRE 1088 -624 688 -624
WIRE 1952 -624 1088 -624
WIRE 1952 -592 1952 -624
WIRE 128 -544 128 -624
WIRE 432 -512 432 -624
WIRE 688 -512 688 -624
WIRE 1088 -512 1088 -624
WIRE 128 -432 128 -464
WIRE 1952 -432 1952 -512
WIRE 1952 -432 1856 -432
WIRE 2080 -432 1952 -432
WIRE 1856 -416 1856 -432
WIRE 2080 -416 2080 -432
WIRE 432 -368 432 -432
WIRE 1792 -368 432 -368
WIRE 2208 -368 2144 -368
WIRE 688 -272 688 -432
WIRE 2208 -272 2208 -368
WIRE 2208 -272 688 -272
WIRE 1088 -240 1088 -432
WIRE 432 -224 432 -368
WIRE 544 -224 432 -224
WIRE 688 -224 688 -272
WIRE 688 -224 608 -224
WIRE 432 -112 432 -224
WIRE 544 -112 432 -112
WIRE 688 -112 688 -224
WIRE 688 -112 608 -112
WIRE 1088 -112 1088 -160
WIRE 1088 -112 960 -112
WIRE 1184 -112 1088 -112
WIRE 2080 -96 2080 -320
WIRE 112 -80 64 -80
WIRE 224 -80 176 -80
WIRE 960 -80 960 -112
WIRE 1184 -80 1184 -112
WIRE 432 -16 432 -112
WIRE 688 -16 688 -112
WIRE 64 32 64 -80
WIRE 64 32 -16 32
WIRE 112 32 64 32
WIRE 224 32 224 -80
WIRE 224 32 192 32
WIRE 256 32 224 32
WIRE 368 32 256 32
WIRE 816 32 752 32
WIRE 960 32 960 -16
WIRE 960 32 816 32
WIRE 1184 32 1184 -16
WIRE 1488 32 1184 32
WIRE 1728 32 1488 32
WIRE 1856 32 1856 -320
WIRE 1856 32 1728 32
WIRE -16 64 -16 32
WIRE 960 64 960 32
WIRE 1184 64 1184 32
WIRE 256 80 256 32
WIRE 1488 96 1488 32
WIRE 1728 96 1728 32
WIRE 816 112 816 32
WIRE 432 128 432 80
WIRE 544 128 432 128
WIRE 688 128 688 80
WIRE 688 128 544 128
WIRE 1856 128 1856 32
WIRE 2080 128 2080 -96
WIRE 544 176 544 128
WIRE 960 176 960 128
WIRE 1088 176 960 176
WIRE 1184 176 1184 128
WIRE 1184 176 1088 176
WIRE 1488 192 1488 160
WIRE 1728 192 1728 160
WIRE -16 208 -16 144
WIRE 256 208 256 160
WIRE 816 240 816 192
WIRE 1088 256 1088 176
WIRE 1488 288 1488 256
WIRE 1728 288 1728 256
WIRE 1488 384 1488 352
WIRE 1728 384 1728 352
WIRE 1088 432 1088 336
WIRE 544 560 544 256
WIRE 1088 560 1088 512
WIRE 1088 560 544 560
WIRE 1856 560 1856 208
WIRE 1856 560 1088 560
WIRE 2080 560 2080 208
WIRE 2080 560 1856 560
WIRE 1088 576 1088 560
FLAG 128 -432 0
FLAG 480 720 0
FLAG 1488 384 0
FLAG 1728 384 0
FLAG 2080 -96 out
FLAG 256 208 0
FLAG -16 208 0
FLAG 816 240 0
SYMBOL voltage -16 48 R0
SYMATTR InstName V1
SYMBOL res 208 16 R90
WINDOW 0 0 56 VBottom 2
WINDOW 3 32 56 VTop 2
SYMATTR InstName R1
SYMATTR Value 1k
SYMBOL res 272 176 R180
WINDOW 0 36 76 Left 2
WINDOW 3 36 40 Left 2
SYMATTR InstName R2
SYMATTR Value 1k
SYMBOL npn 368 -16 R0
SYMATTR InstName Q1
SYMATTR Value 2N3904
SYMBOL npn 752 -16 M0
SYMATTR InstName Q2
SYMATTR Value 2N3904
SYMBOL res 528 160 R0
SYMATTR InstName R3
SYMATTR Value 2k
SYMBOL res 416 -528 R0
SYMATTR InstName R4
SYMATTR Value 4k
SYMBOL res 672 -528 R0
SYMATTR InstName R5
SYMATTR Value 4k
SYMBOL pnp 2144 -320 R180
SYMATTR InstName Q3
SYMATTR Value 2N3906
SYMBOL pnp 1792 -320 M180
SYMATTR InstName Q4
SYMATTR Value 2N3906
SYMBOL diode 608 -128 R90
WINDOW 0 0 32 VBottom 2
WINDOW 3 32 32 VTop 2
SYMATTR InstName D1
SYMATTR Value 1N4148
SYMBOL diode 544 -208 R270
WINDOW 0 32 32 VTop 2
WINDOW 3 0 32 VBottom 2
SYMATTR InstName D2
SYMATTR Value 1N4148
SYMBOL diode 944 -80 R0
SYMATTR InstName D3
SYMATTR Value 1N4148
SYMBOL diode 1168 -80 R0
SYMATTR InstName D4
SYMATTR Value 1N4148
SYMBOL diode 944 64 R0
SYMATTR InstName D5
SYMATTR Value 1N4148
SYMBOL diode 1168 64 R0
SYMATTR InstName D6
SYMATTR Value 1N4148
SYMBOL res 1072 -256 R0
SYMATTR InstName R6
SYMATTR Value 13k
SYMBOL res 1072 -528 R0
SYMATTR InstName R7
SYMATTR Value 2k
SYMBOL res 1072 240 R0
SYMATTR InstName R8
SYMATTR Value 13k
SYMBOL res 1072 416 R0
SYMATTR InstName R9
SYMATTR Value 2k
SYMBOL res 1840 112 R0
SYMATTR InstName R10
SYMATTR Value 2.7k
SYMBOL res 2064 112 R0
SYMATTR InstName R11
SYMATTR Value 2.7k
SYMBOL res 1936 -608 R0
SYMATTR InstName R12
SYMATTR Value 910
SYMBOL voltage 128 -560 R0
SYMATTR InstName V2
SYMBOL voltage 480 704 R180
WINDOW 0 24 96 Left 2
WINDOW 3 24 16 Left 2
SYMATTR InstName V3
SYMBOL res 800 96 R0
SYMATTR InstName R13
SYMATTR Value 500
SYMBOL cap 176 -96 R90
WINDOW 0 0 32 VBottom 2
WINDOW 3 32 32 VTop 2
SYMATTR InstName C1
SYMATTR Value 56n
SYMBOL diode 1472 96 R0
SYMATTR InstName D7
SYMATTR Value 1N4148
SYMBOL diode 1472 192 R0
SYMATTR InstName D8
SYMATTR Value 1N4148
SYMBOL diode 1472 288 R0
SYMATTR InstName D9
SYMATTR Value 1N4148
SYMBOL diode 1744 160 R180
WINDOW 0 24 64 Left 2
WINDOW 3 24 0 Left 2
SYMATTR InstName D10
SYMATTR Value 1N4148
SYMBOL diode 1744 256 R180
WINDOW 0 24 64 Left 2
WINDOW 3 24 0 Left 2
SYMATTR InstName D11
SYMATTR Value 1N4148
SYMBOL diode 1744 352 R180
WINDOW 0 24 64 Left 2
WINDOW 3 24 0 Left 2
SYMATTR InstName D12
SYMATTR Value 1N4148
