Version 4
SHEET 1 3000 744
WIRE 432 -624 128 -624
WIRE 688 -624 432 -624
WIRE 1088 -624 688 -624
WIRE 1952 -624 1088 -624
WIRE 2464 -624 1952 -624
WIRE 1952 -560 1952 -624
WIRE 128 -544 128 -624
WIRE 432 -512 432 -624
WIRE 688 -512 688 -624
WIRE 1088 -512 1088 -624
WIRE 128 -432 128 -464
WIRE 1952 -432 1952 -480
WIRE 1952 -432 1856 -432
WIRE 2080 -432 1952 -432
WIRE 1856 -416 1856 -432
WIRE 2080 -416 2080 -432
WIRE 688 -368 688 -432
WIRE 1792 -368 688 -368
WIRE 2208 -368 2144 -368
WIRE 2464 -352 2464 -624
WIRE 432 -272 432 -432
WIRE 2208 -272 2208 -368
WIRE 2208 -272 432 -272
WIRE 1088 -240 1088 -432
WIRE 432 -224 432 -272
WIRE 544 -224 432 -224
WIRE 688 -224 688 -368
WIRE 688 -224 608 -224
WIRE 2464 -224 2464 -272
WIRE 2464 -224 2336 -224
WIRE 2560 -224 2464 -224
WIRE 2336 -192 2336 -224
WIRE 2560 -192 2560 -224
WIRE 192 -160 -96 -160
WIRE 432 -112 432 -224
WIRE 544 -112 432 -112
WIRE 688 -112 688 -224
WIRE 688 -112 608 -112
WIRE 1088 -112 1088 -160
WIRE 1088 -112 960 -112
WIRE 1184 -112 1088 -112
WIRE -96 -80 -96 -160
WIRE -96 -80 -368 -80
WIRE 16 -80 -48 -80
WIRE 128 -80 96 -80
WIRE 192 -80 192 -160
WIRE 224 -80 192 -80
WIRE 960 -80 960 -112
WIRE 1184 -80 1184 -112
WIRE 2080 -80 2080 -320
WIRE 2336 -80 2336 -128
WIRE 2336 -80 2080 -80
WIRE 2560 -80 2560 -128
WIRE 2736 -80 2560 -80
WIRE 2784 -80 2736 -80
WIRE 2944 -80 2864 -80
WIRE -368 -64 -368 -80
WIRE -368 -64 -592 -64
WIRE 2336 -48 2336 -80
WIRE 2560 -48 2560 -80
WIRE 2736 -48 2736 -80
WIRE -592 -16 -592 -64
WIRE 432 -16 432 -112
WIRE 688 -16 688 -112
WIRE -48 16 -48 -80
WIRE 16 16 -48 16
WIRE 128 16 128 -80
WIRE 128 16 80 16
WIRE 224 32 224 -80
WIRE 256 32 224 32
WIRE 368 32 256 32
WIRE 816 32 752 32
WIRE 960 32 960 -16
WIRE 960 32 816 32
WIRE 1184 32 1184 -16
WIRE 1488 32 1184 32
WIRE 1728 32 1488 32
WIRE 1856 32 1856 -320
WIRE 1856 32 1728 32
WIRE 960 64 960 32
WIRE 1184 64 1184 32
WIRE 2336 64 2336 16
WIRE 2464 64 2336 64
WIRE 2560 64 2560 16
WIRE 2560 64 2464 64
WIRE 256 80 256 32
WIRE 1488 96 1488 32
WIRE 1728 96 1728 32
WIRE 816 112 816 32
WIRE -592 128 -592 64
WIRE 432 128 432 80
WIRE 544 128 432 128
WIRE 688 128 688 80
WIRE 688 128 544 128
WIRE 1856 128 1856 32
WIRE 2080 128 2080 -80
WIRE 2464 144 2464 64
WIRE 960 176 960 128
WIRE 1088 176 960 176
WIRE 1184 176 1184 128
WIRE 1184 176 1088 176
WIRE 256 208 256 160
WIRE 816 240 816 192
WIRE 1088 256 1088 176
WIRE 1728 256 1728 160
WIRE 1488 288 1488 160
WIRE 1728 352 1728 320
WIRE 1488 384 1488 352
WIRE 1088 432 1088 336
WIRE 544 448 544 128
WIRE 1728 448 1728 416
WIRE 1488 480 1488 448
WIRE 544 560 544 528
WIRE 1088 560 1088 512
WIRE 1088 560 544 560
WIRE 1856 560 1856 208
WIRE 1856 560 1088 560
WIRE 2080 560 2080 208
WIRE 2080 560 1856 560
WIRE 2464 560 2464 224
WIRE 2464 560 2080 560
WIRE 1088 576 1088 560
WIRE 544 624 544 560
FLAG 128 -432 0
FLAG 1488 480 0
FLAG 1728 448 0
FLAG 256 208 0
FLAG -592 128 0
FLAG 816 240 0
FLAG 544 704 0
FLAG 2944 -80 out
FLAG 2736 32 0
SYMBOL voltage -592 -32 R0
WINDOW 123 0 0 Left 0
WINDOW 39 0 0 Left 0
SYMATTR InstName V1
SYMATTR Value PULSE(-0.01  0.01  0 {0.5 /f} {0.5 /f} 0 {1/f})
SYMBOL res 272 176 R180
WINDOW 0 36 76 Left 2
WINDOW 3 36 40 Left 2
SYMATTR InstName R2
SYMATTR Value 1k
SYMBOL npn 368 -16 R0
SYMATTR InstName Q1
SYMATTR Value 2N3904
SYMBOL npn 752 -16 M0
SYMATTR InstName Q2
SYMATTR Value 2N3904
SYMBOL res 528 432 R0
SYMATTR InstName R3
SYMATTR Value 3k
SYMBOL res 416 -528 R0
SYMATTR InstName R4
SYMATTR Value 4k
SYMBOL res 672 -528 R0
SYMATTR InstName R5
SYMATTR Value 4k
SYMBOL pnp 2144 -320 R180
SYMATTR InstName Q3
SYMATTR Value 2N3906
SYMBOL pnp 1792 -320 M180
SYMATTR InstName Q4
SYMATTR Value 2N3906
SYMBOL diode 608 -128 R90
WINDOW 0 0 32 VBottom 2
WINDOW 3 32 32 VTop 2
SYMATTR InstName D1
SYMATTR Value 1N4148
SYMBOL diode 544 -208 R270
WINDOW 0 32 32 VTop 2
WINDOW 3 0 32 VBottom 2
SYMATTR InstName D2
SYMATTR Value 1N4148
SYMBOL diode 944 -80 R0
SYMATTR InstName D3
SYMATTR Value 1N4148
SYMBOL diode 1168 -80 R0
SYMATTR InstName D4
SYMATTR Value 1N4148
SYMBOL diode 944 64 R0
SYMATTR InstName D5
SYMATTR Value 1N4148
SYMBOL diode 1168 64 R0
SYMATTR InstName D6
SYMATTR Value 1N4148
SYMBOL res 1072 -256 R0
SYMATTR InstName R6
SYMATTR Value 6k
SYMBOL res 1072 -528 R0
SYMATTR InstName R7
SYMATTR Value 5k
SYMBOL res 1072 240 R0
SYMATTR InstName R8
SYMATTR Value 6k
SYMBOL res 1072 416 R0
SYMATTR InstName R9
SYMATTR Value 5k
SYMBOL res 1840 112 R0
SYMATTR InstName R10
SYMATTR Value 3k
SYMBOL res 2064 112 R0
SYMATTR InstName R11
SYMATTR Value 3k
SYMBOL voltage 128 -560 R0
SYMATTR InstName V2
SYMATTR Value 12
SYMBOL res 800 96 R0
SYMATTR InstName R13
SYMATTR Value 450
SYMBOL diode 1472 384 R0
SYMATTR InstName D9
SYMATTR Value 1N4148
SYMBOL diode 1744 416 R180
WINDOW 0 24 64 Left 2
WINDOW 3 24 0 Left 2
SYMATTR InstName D12
SYMATTR Value 1N4148
SYMBOL voltage 544 608 R0
SYMATTR InstName V3
SYMATTR Value -12
SYMBOL res 1936 -576 R0
SYMATTR InstName R1
SYMATTR Value 900
SYMBOL diode 1472 288 R0
SYMATTR InstName D8
SYMATTR Value 1N4148
SYMBOL diode 1744 320 R180
WINDOW 0 24 64 Left 2
WINDOW 3 24 0 Left 2
SYMATTR InstName D11
SYMATTR Value 1N4148
SYMBOL diode 1472 96 R0
SYMATTR InstName D13
SYMATTR Value 1N4148
SYMBOL diode 1744 160 R180
WINDOW 0 24 64 Left 2
WINDOW 3 24 0 Left 2
SYMATTR InstName D14
SYMATTR Value 1N4148
SYMBOL cap 80 0 R90
WINDOW 0 0 32 VBottom 2
WINDOW 3 32 32 VTop 2
SYMATTR InstName C1
SYMATTR Value 56p
SYMBOL res 112 -96 R90
WINDOW 0 0 56 VBottom 2
WINDOW 3 32 56 VTop 2
SYMATTR InstName R12
SYMATTR Value 1k
SYMBOL diode 2320 -192 R0
SYMATTR InstName D7
SYMATTR Value 1N4148
SYMBOL diode 2544 -192 R0
SYMATTR InstName D10
SYMATTR Value 1N4148
SYMBOL diode 2320 -48 R0
SYMATTR InstName D15
SYMATTR Value 1N4148
SYMBOL diode 2544 -48 R0
SYMATTR InstName D16
SYMATTR Value 1N4148
SYMBOL res 2448 -368 R0
SYMATTR InstName R14
SYMATTR Value 2k
SYMBOL res 2448 128 R0
SYMATTR InstName R15
SYMATTR Value 2k
SYMBOL res 2720 -64 R0
SYMATTR InstName R16
SYMATTR Value 150
SYMBOL res 2880 -96 R90
WINDOW 0 0 56 VBottom 2
WINDOW 3 32 56 VTop 2
SYMATTR InstName R17
SYMATTR Value 100
TEXT -50 728 Left 2 !.tran 0 300u 250u
TEXT -32 688 Left 2 !.param f=100k
