Version 4
SHEET 1 3000 1268
WIRE 560 -624 432 -624
WIRE 688 -624 560 -624
WIRE 1088 -624 688 -624
WIRE 1744 -624 1088 -624
WIRE 1744 -560 1744 -624
WIRE 560 -544 560 -624
WIRE 432 -512 432 -624
WIRE 688 -512 688 -624
WIRE 560 -432 560 -464
WIRE 1744 -432 1744 -480
WIRE 1744 -432 1648 -432
WIRE 1872 -432 1744 -432
WIRE 1648 -416 1648 -432
WIRE 1872 -416 1872 -432
WIRE 688 -368 688 -432
WIRE 1584 -368 688 -368
WIRE 2000 -368 1936 -368
WIRE 432 -272 432 -432
WIRE 2000 -272 2000 -368
WIRE 2000 -272 432 -272
WIRE 1088 -240 1088 -624
WIRE 432 -160 432 -272
WIRE 528 -160 432 -160
WIRE 688 -160 688 -368
WIRE 688 -160 592 -160
WIRE 1088 -112 1088 -160
WIRE 1088 -112 960 -112
WIRE 1152 -112 1088 -112
WIRE 1184 -112 1152 -112
WIRE 960 -80 960 -112
WIRE 1184 -80 1184 -112
WIRE 0 -64 -32 -64
WIRE 112 -64 64 -64
WIRE 432 -64 432 -160
WIRE 528 -64 432 -64
WIRE 688 -64 688 -160
WIRE 688 -64 592 -64
WIRE 1872 -32 1872 -320
WIRE 2096 -32 1872 -32
WIRE 432 -16 432 -64
WIRE 688 -16 688 -64
WIRE -32 32 -32 -64
WIRE -32 32 -448 32
WIRE 0 32 -32 32
WIRE 112 32 112 -64
WIRE 112 32 80 32
WIRE 160 32 112 32
WIRE 368 32 160 32
WIRE 816 32 752 32
WIRE 896 32 816 32
WIRE 960 32 960 -16
WIRE 960 32 896 32
WIRE 1184 32 1184 -16
WIRE 1312 32 1184 32
WIRE 1440 32 1312 32
WIRE 1552 32 1440 32
WIRE 1648 32 1648 -320
WIRE 1648 32 1552 32
WIRE 1312 48 1312 32
WIRE 1552 48 1552 32
WIRE 1872 48 1872 -32
WIRE 2096 48 2096 -32
WIRE 960 64 960 32
WIRE 1184 64 1184 32
WIRE -448 80 -448 32
WIRE 160 80 160 32
WIRE 816 80 816 32
WIRE 432 128 432 80
WIRE 576 128 432 128
WIRE 688 128 688 80
WIRE 688 128 576 128
WIRE 1648 128 1648 32
WIRE 1872 128 1872 48
WIRE 576 144 576 128
WIRE 1312 144 1312 112
WIRE 1552 144 1552 112
WIRE 2096 160 2096 128
WIRE 960 176 960 128
WIRE 1088 176 960 176
WIRE 1136 176 1088 176
WIRE 1184 176 1184 128
WIRE 1184 176 1136 176
WIRE 160 192 160 160
WIRE 368 192 240 192
WIRE 512 192 368 192
WIRE 816 208 816 160
WIRE 816 208 752 208
WIRE 1088 208 1088 176
WIRE -448 224 -448 160
WIRE 240 240 240 192
WIRE 368 240 368 192
WIRE 816 240 816 208
WIRE 1312 240 1312 208
WIRE 1552 240 1552 208
WIRE 576 272 576 240
WIRE 752 272 752 208
WIRE 1312 336 1312 304
WIRE 1552 336 1552 304
WIRE 240 352 240 320
WIRE 368 384 368 320
WIRE 576 384 576 352
WIRE 576 384 368 384
WIRE 752 384 752 352
WIRE 752 384 576 384
WIRE 1088 384 1088 288
WIRE 1088 384 752 384
WIRE 1648 384 1648 208
WIRE 1648 384 1088 384
WIRE 1872 384 1872 208
WIRE 1872 384 1648 384
FLAG 560 -432 0
FLAG 1312 336 0
FLAG 1552 336 0
FLAG -448 224 0
FLAG 816 240 0
FLAG 1872 48 out
FLAG 2096 160 0
FLAG 240 352 0
FLAG 1440 32 n1
FLAG 1136 176 n2
FLAG 896 32 n3
FLAG 1152 -112 n4
FLAG 160 192 0
SYMBOL voltage -448 64 R0
WINDOW 123 0 0 Left 0
WINDOW 39 0 0 Left 0
SYMATTR InstName V1
SYMATTR Value PULSE(-1 1 0 {0.5 /f} {0.5 /f} 0 {1/f})
SYMBOL npn 368 -16 R0
SYMATTR InstName Q1
SYMATTR Value 2N3904
SYMBOL npn 752 -16 M0
SYMATTR InstName Q2
SYMATTR Value 2N3904
SYMBOL res 416 -528 R0
SYMATTR InstName R4
SYMATTR Value {Rdiff1}
SYMBOL res 672 -528 R0
SYMATTR InstName R5
SYMATTR Value {Rdiff1}
SYMBOL pnp 1936 -320 R180
SYMATTR InstName Q3
SYMATTR Value 2N3906
SYMBOL pnp 1584 -320 M180
SYMATTR InstName Q4
SYMATTR Value 2N3906
SYMBOL diode 592 -80 R90
WINDOW 0 0 32 VBottom 2
WINDOW 3 32 32 VTop 2
SYMATTR InstName D1
SYMATTR Value 1N4148
SYMBOL diode 528 -144 R270
WINDOW 0 32 32 VTop 2
WINDOW 3 0 32 VBottom 2
SYMATTR InstName D2
SYMATTR Value 1N4148
SYMBOL diode 944 -80 R0
SYMATTR InstName D3
SYMATTR Value 1N4148
SYMBOL diode 1168 -80 R0
SYMATTR InstName D4
SYMATTR Value 1N4148
SYMBOL diode 944 64 R0
SYMATTR InstName D5
SYMATTR Value 1N4148
SYMBOL diode 1168 64 R0
SYMATTR InstName D6
SYMATTR Value 1N4148
SYMBOL res 1072 -256 R0
SYMATTR InstName R6
SYMATTR Value 15k
SYMBOL res 1072 192 R0
SYMATTR InstName R8
SYMATTR Value 12k
SYMBOL res 1632 112 R0
SYMATTR InstName R10
SYMATTR Value {Rdiff2}
SYMBOL res 1856 112 R0
SYMATTR InstName R11
SYMATTR Value {Rdiff2}
SYMBOL voltage 560 -560 R0
SYMATTR InstName V2
SYMATTR Value 12
SYMBOL res 800 64 R0
SYMATTR InstName R13
SYMATTR Value 500
SYMBOL diode 1296 240 R0
SYMATTR InstName D9
SYMATTR Value 1N4148
SYMBOL diode 1568 304 R180
WINDOW 0 24 64 Left 2
WINDOW 3 24 0 Left 2
SYMATTR InstName D12
SYMATTR Value 1N4148
SYMBOL res 1728 -576 R0
SYMATTR InstName R1
SYMATTR Value 1.5k
SYMBOL diode 1296 144 R0
SYMATTR InstName D8
SYMATTR Value 1N4148
SYMBOL diode 1568 208 R180
WINDOW 0 24 64 Left 2
WINDOW 3 24 0 Left 2
SYMATTR InstName D11
SYMATTR Value 1N4148
SYMBOL diode 1296 48 R0
SYMATTR InstName D13
SYMATTR Value 1N4148
SYMBOL diode 1568 112 R180
WINDOW 0 24 64 Left 2
WINDOW 3 24 0 Left 2
SYMATTR InstName D14
SYMATTR Value 1N4148
SYMBOL voltage 752 256 R0
WINDOW 123 0 0 Left 0
WINDOW 39 0 0 Left 0
SYMATTR InstName V3
SYMATTR Value 12
SYMBOL res 2080 32 R0
SYMATTR InstName R7
SYMATTR Value 1k
SYMBOL npn 512 144 R0
SYMATTR InstName Q5
SYMBOL res 560 256 R0
SYMATTR InstName R3
SYMATTR Value 2k
SYMBOL res 352 224 R0
SYMATTR InstName R9
SYMATTR Value 30k
SYMBOL res 224 224 R0
SYMATTR InstName R12
SYMATTR Value 10k
SYMBOL res 96 16 R90
WINDOW 0 0 56 VBottom 2
WINDOW 3 32 56 VTop 2
SYMATTR InstName R2
SYMATTR Value 1k
SYMBOL res 176 176 R180
WINDOW 0 36 76 Left 2
WINDOW 3 36 40 Left 2
SYMATTR InstName R14
SYMATTR Value 1k
SYMBOL cap 64 -80 R90
WINDOW 0 0 32 VBottom 2
WINDOW 3 32 32 VTop 2
SYMATTR InstName C1
SYMATTR Value 56p
TEXT -288 288 Left 2 !.tran 0 20u 18u
TEXT -288 248 Left 2 !.param f=1Meg
TEXT 712 -40 Left 2 ;(+)
TEXT 376 -48 Left 2 ;(-)
TEXT 416 432 Left 2 ;chaning R3 varies duty cycle
TEXT 1664 256 Left 2 !.param Rdiff2=6k
TEXT 464 -672 Left 2 !.param Rdiff1=4.7k
