Version 4
SHEET 1 1924 1012
WIRE 1312 -512 688 -512
WIRE 48 -384 -208 -384
WIRE 384 -384 48 -384
WIRE 544 -384 384 -384
WIRE 864 -384 544 -384
WIRE 992 -384 864 -384
WIRE 1120 -384 992 -384
WIRE 1488 -384 1120 -384
WIRE -208 -336 -208 -384
WIRE 864 -336 864 -384
WIRE 992 -336 992 -384
WIRE 1120 -336 1120 -384
WIRE 48 -320 48 -384
WIRE 384 -320 384 -384
WIRE 1488 -272 1488 -384
WIRE 992 -240 992 -256
WIRE -208 -224 -208 -256
WIRE 1120 -208 1120 -256
WIRE 1312 -208 1312 -512
WIRE 1312 -208 1120 -208
WIRE 1120 -160 1120 -208
WIRE 384 -144 384 -240
WIRE 688 -144 688 -512
WIRE 688 -144 384 -144
WIRE 864 -144 864 -272
WIRE 992 -144 992 -176
WIRE 992 -144 864 -144
WIRE 992 -112 992 -144
WIRE 1056 -112 992 -112
WIRE 1488 -80 1488 -192
WIRE 544 -48 544 -384
WIRE 1120 -32 1120 -64
WIRE 1424 -32 1120 -32
WIRE 1120 16 1120 -32
WIRE 544 96 544 32
WIRE 656 96 544 96
WIRE 816 96 720 96
WIRE 1488 96 1488 16
WIRE 48 176 48 -240
WIRE 384 176 384 -144
WIRE -304 224 -368 224
WIRE -176 224 -304 224
WIRE -16 224 -96 224
WIRE 496 224 448 224
WIRE 544 224 544 96
WIRE 544 224 496 224
WIRE 640 224 544 224
WIRE 816 224 816 96
WIRE 816 224 720 224
WIRE 1488 224 1488 176
WIRE 1488 224 816 224
WIRE 1632 224 1488 224
WIRE 1840 224 1712 224
WIRE 1872 224 1840 224
WIRE 992 272 992 -112
WIRE 1120 272 1120 80
WIRE 1488 272 1488 224
WIRE -368 304 -368 224
WIRE 48 304 48 272
WIRE 112 304 48 304
WIRE 240 304 192 304
WIRE 384 304 384 272
WIRE 384 304 304 304
WIRE 48 336 48 304
WIRE 384 336 384 304
WIRE 496 352 496 224
WIRE 1120 384 1120 336
WIRE 1264 384 1120 384
WIRE 1120 432 1120 384
WIRE 1488 432 1488 352
WIRE -368 480 -368 384
WIRE 48 480 48 416
WIRE 224 480 48 480
WIRE 384 480 384 416
WIRE 384 480 224 480
WIRE 992 480 992 352
WIRE 1056 480 992 480
WIRE 1264 480 1264 384
WIRE 1424 480 1264 480
WIRE 1872 480 1872 224
WIRE 496 496 496 432
WIRE 992 496 992 480
WIRE 992 496 864 496
WIRE 992 544 992 496
WIRE 224 576 224 480
WIRE 1120 592 1120 528
WIRE 1488 592 1488 528
WIRE 864 608 864 496
WIRE 992 640 992 608
WIRE 224 736 224 656
WIRE 256 736 224 736
WIRE 864 736 864 672
WIRE 864 736 256 736
WIRE 992 736 992 720
WIRE 992 736 864 736
WIRE 1120 736 1120 672
WIRE 1120 736 992 736
WIRE 1488 736 1488 672
WIRE 1488 736 1120 736
WIRE 1872 736 1872 560
WIRE 1872 736 1488 736
WIRE 256 784 256 736
WIRE 256 896 256 864
FLAG -208 -224 0
FLAG 256 896 0
FLAG -368 480 0
FLAG 1840 224 out
FLAG -304 224 in
FLAG 496 496 0
SYMBOL res 32 -336 R0
SYMATTR InstName R1
SYMATTR Value 2k
SYMBOL res 32 320 R0
SYMATTR InstName R3
SYMATTR Value 0
SYMBOL res 368 320 R0
SYMATTR InstName R4
SYMATTR Value 0
SYMBOL npn -16 176 R0
SYMATTR InstName Q1
SYMATTR Value 2N3904
SYMBOL res 208 560 R0
SYMATTR InstName R5
SYMATTR Value 3k
SYMBOL npn 448 176 M0
SYMATTR InstName Q2
SYMATTR Value 2N3904
SYMBOL res 480 336 R0
SYMATTR InstName R6
SYMATTR Value 1k
SYMBOL res 736 208 R90
WINDOW 0 0 56 VBottom 2
WINDOW 3 32 56 VTop 2
SYMATTR InstName R7
SYMATTR Value 10k
SYMBOL npn 1424 -80 R0
SYMATTR InstName Q6
SYMATTR Value 2N3904
SYMBOL pnp 1424 528 M180
SYMATTR InstName Q9
SYMATTR Value 2N3906
SYMBOL res 1472 80 R0
SYMATTR InstName R9
SYMATTR Value 5
SYMBOL res 1472 256 R0
SYMATTR InstName R10
SYMATTR Value 5
SYMBOL res 1888 576 R180
WINDOW 0 36 76 Left 2
WINDOW 3 36 40 Left 2
SYMATTR InstName R12
SYMATTR Value 50
SYMBOL res 208 288 R90
WINDOW 0 0 56 VBottom 2
WINDOW 3 32 56 VTop 2
SYMATTR InstName R13
SYMATTR Value 160
SYMBOL cap 304 288 R90
WINDOW 0 0 32 VBottom 2
WINDOW 3 32 32 VTop 2
SYMATTR InstName C2
SYMATTR Value 330p
SYMBOL voltage -208 -352 R0
WINDOW 123 0 0 Left 0
WINDOW 39 0 0 Left 0
SYMATTR InstName V1
SYMATTR Value 12
SYMBOL voltage 256 880 R180
WINDOW 0 24 96 Left 2
WINDOW 3 24 16 Left 2
WINDOW 123 0 0 Left 0
WINDOW 39 0 0 Left 0
SYMATTR InstName V2
SYMATTR Value 12
SYMBOL voltage -368 288 R0
WINDOW 3 28 121 Left 2
WINDOW 123 28 149 Left 2
WINDOW 39 0 0 Left 0
SYMATTR Value ""
SYMATTR Value2 AC 1
SYMATTR InstName V3
SYMBOL res -80 208 R90
WINDOW 0 0 56 VBottom 2
WINDOW 3 32 56 VTop 2
SYMATTR InstName R11
SYMATTR Value 0
SYMBOL res 1728 208 R90
WINDOW 0 0 56 VBottom 2
WINDOW 3 32 56 VTop 2
SYMATTR InstName R15
SYMATTR Value 0
SYMBOL res 1472 576 R0
SYMATTR InstName R16
SYMATTR Value 300
SYMBOL res 1472 -288 R0
SYMATTR InstName R14
SYMATTR Value 300
SYMBOL cap 720 80 R90
WINDOW 0 0 32 VBottom 2
WINDOW 3 32 32 VTop 2
SYMATTR InstName C1
SYMATTR Value 2p
SYMBOL cap 848 -336 R0
SYMATTR InstName C3
SYMATTR Value 10n
SYMBOL res 976 -352 R0
SYMATTR InstName R8
SYMATTR Value 300
SYMBOL diode 976 -240 R0
SYMATTR InstName D1
SYMATTR Value 1N4148
SYMBOL res 976 624 R0
SYMATTR InstName R17
SYMATTR Value 300
SYMBOL cap 848 608 R0
SYMATTR InstName C4
SYMATTR Value 10n
SYMBOL npn 1056 432 R0
SYMATTR InstName Q3
SYMATTR Value 2N3904
SYMBOL res 976 256 R0
SYMATTR InstName R18
SYMATTR Value 20k
SYMBOL pnp 1056 -64 M180
SYMATTR InstName Q4
SYMATTR Value 2N3906
SYMBOL res 1104 576 R0
SYMATTR InstName R19
SYMATTR Value 100
SYMBOL res 1104 -352 R0
SYMATTR InstName R20
SYMATTR Value 50
SYMBOL diode 1104 16 R0
SYMATTR InstName D2
SYMATTR Value 1N4148
SYMBOL diode 1104 272 R0
SYMATTR InstName D3
SYMATTR Value 1N4148
SYMBOL diode 976 544 R0
SYMATTR InstName D4
SYMATTR Value 1N4148
SYMBOL res 528 -64 R0
SYMATTR InstName R2
SYMATTR Value 15k
TEXT 80 -480 Left 2 ;want output centered at 6V\nbiasing to 2mA from BK3001\nR=(12-6)/1mA=6k
TEXT -216 544 Left 2 ;choose diff gain G=10\nre=25mV/Ic\n10=6k/(2(Re+re)) =>Re=275
TEXT -288 688 Left 2 ;choose common mode gain of 0.5\n0.5=6k/(2Rtail+Re+re) => Rtail=5.85k
TEXT 144 360 Left 2 ;from app notes
TEXT -288 920 Left 2 !.ac oct 100 1k 1Gig
TEXT -16 160 Left 2 ;(+)
TEXT 408 160 Left 2 ;(-)
TEXT -296 944 Left 2 ;.tran 20u
TEXT -288 888 Left 2 !.op
TEXT -152 160 Left 2 ;pot
