Version 4
SHEET 1 1924 1032
WIRE 48 -384 -208 -384
WIRE 384 -384 48 -384
WIRE 816 -384 384 -384
WIRE 1104 -384 816 -384
WIRE 1216 -384 1104 -384
WIRE 1488 -384 1216 -384
WIRE -208 -336 -208 -384
WIRE 1104 -320 1104 -384
WIRE 48 -304 48 -384
WIRE 1216 -304 1216 -384
WIRE 384 -288 384 -384
WIRE 816 -272 816 -384
WIRE 1488 -272 1488 -384
WIRE -208 -224 -208 -256
WIRE 1104 -208 1104 -240
WIRE 1216 -208 1216 -240
WIRE 1216 -208 1104 -208
WIRE 1104 -176 1104 -208
WIRE 1488 -176 1488 -192
WIRE 1632 -176 1488 -176
WIRE 1632 -144 1632 -176
WIRE 48 -128 48 -224
WIRE 1040 -128 48 -128
WIRE 1488 -80 1488 -176
WIRE 816 -64 816 -192
WIRE 1632 -48 1632 -80
WIRE 1104 -32 1104 -80
WIRE 1424 -32 1104 -32
WIRE 384 -16 384 -208
WIRE 752 -16 384 -16
WIRE 1104 16 1104 -32
WIRE 592 96 528 96
WIRE 704 96 656 96
WIRE 1488 96 1488 16
WIRE 48 176 48 -128
WIRE 384 176 384 -16
WIRE -304 224 -368 224
WIRE -176 224 -304 224
WIRE -16 224 -96 224
WIRE 480 224 448 224
WIRE 528 224 528 96
WIRE 528 224 480 224
WIRE 576 224 528 224
WIRE 704 224 704 96
WIRE 704 224 656 224
WIRE 1488 224 1488 176
WIRE 1488 224 704 224
WIRE 1840 224 1488 224
WIRE 1872 224 1840 224
WIRE 1104 272 1104 80
WIRE 1488 288 1488 224
WIRE -368 304 -368 224
WIRE 48 304 48 272
WIRE 96 304 48 304
WIRE 256 304 176 304
WIRE 384 304 384 272
WIRE 384 304 320 304
WIRE 48 336 48 304
WIRE 384 336 384 304
WIRE 480 352 480 224
WIRE 1104 368 1104 336
WIRE 1248 368 1104 368
WIRE 1872 368 1872 224
WIRE 1104 400 1104 368
WIRE 1488 432 1488 368
WIRE 816 448 816 32
WIRE 1040 448 816 448
WIRE -368 480 -368 384
WIRE 48 480 48 416
WIRE 224 480 48 480
WIRE 384 480 384 416
WIRE 384 480 224 480
WIRE 1248 480 1248 368
WIRE 1424 480 1248 480
WIRE 480 496 480 432
WIRE 1488 560 1488 528
WIRE 1632 560 1488 560
WIRE 1872 560 1872 448
WIRE 224 576 224 480
WIRE 816 576 816 448
WIRE 1104 576 1104 496
WIRE 1488 592 1488 560
WIRE 1632 608 1632 560
WIRE 1232 624 1232 560
WIRE 1632 704 1632 672
WIRE 224 736 224 656
WIRE 256 736 224 736
WIRE 816 736 816 656
WIRE 816 736 256 736
WIRE 1104 736 1104 656
WIRE 1104 736 816 736
WIRE 1232 736 1232 688
WIRE 1232 736 1104 736
WIRE 1488 736 1488 672
WIRE 1488 736 1232 736
WIRE 256 784 256 736
WIRE 256 896 256 864
FLAG -208 -224 0
FLAG 256 896 0
FLAG -368 480 0
FLAG 1840 224 out
FLAG -304 224 in
FLAG 480 496 0
FLAG 1872 560 0
FLAG 1632 -48 0
FLAG 1632 704 0
SYMBOL res 32 -320 R0
SYMATTR InstName R1
SYMATTR Value 1k
SYMBOL res 368 -304 R0
SYMATTR InstName R2
SYMATTR Value 1k
SYMBOL res 32 320 R0
SYMATTR InstName R3
SYMATTR Value 100
SYMBOL res 368 320 R0
SYMATTR InstName R4
SYMATTR Value 15
SYMBOL npn -16 176 R0
SYMATTR InstName Q1
SYMATTR Value 2N3904
SYMBOL res 208 560 R0
SYMATTR InstName R5
SYMATTR Value 3.5k
SYMBOL npn 448 176 M0
SYMATTR InstName Q2
SYMATTR Value 2N3904
SYMBOL res 464 336 R0
SYMATTR InstName R6
SYMATTR Value 300
SYMBOL res 672 208 R90
WINDOW 0 0 56 VBottom 2
WINDOW 3 32 56 VTop 2
SYMATTR InstName R7
SYMATTR Value 8k
SYMBOL npn 1424 -80 R0
SYMATTR InstName Q6
SYMATTR Value 2N3904
SYMBOL pnp 1424 528 M180
SYMATTR InstName Q9
SYMATTR Value 2N3906
SYMBOL res 1888 464 R180
WINDOW 0 36 76 Left 2
WINDOW 3 36 40 Left 2
SYMATTR InstName RL
SYMATTR Value 50
SYMBOL voltage -208 -352 R0
WINDOW 123 0 0 Left 0
WINDOW 39 0 0 Left 0
SYMATTR InstName V1
SYMATTR Value 12
SYMBOL voltage 256 880 R180
WINDOW 0 24 96 Left 2
WINDOW 3 24 16 Left 2
WINDOW 123 0 0 Left 0
WINDOW 39 0 0 Left 0
SYMATTR InstName V2
SYMATTR Value 12
SYMBOL voltage -368 288 R0
WINDOW 3 24 44 Left 2
WINDOW 123 28 149 Left 2
WINDOW 39 0 0 Left 0
SYMATTR Value SINE(0 10m {freq})
SYMATTR Value2 AC 1
SYMATTR InstName V3
SYMBOL pnp 1040 -80 M180
SYMATTR InstName Q3
SYMATTR Value 2N3906
SYMBOL res -80 208 R90
WINDOW 0 0 56 VBottom 2
WINDOW 3 32 56 VTop 2
SYMATTR InstName R11
SYMATTR Value 0
SYMBOL diode 1088 272 R0
SYMATTR InstName D1
SYMATTR Value 1N4148
SYMBOL diode 1088 16 R0
SYMATTR InstName D2
SYMATTR Value 1N4148
SYMBOL res 1472 576 R0
SYMATTR InstName R16
SYMATTR Value 100
SYMBOL res 1472 -288 R0
SYMATTR InstName R14
SYMATTR Value 100
SYMBOL cap 656 80 R90
WINDOW 0 0 32 VBottom 2
WINDOW 3 32 32 VTop 2
SYMATTR InstName C1
SYMATTR Value 3p
SYMBOL cap 1616 -144 R0
SYMATTR InstName C4
SYMATTR Value 22n
SYMBOL cap 1616 608 R0
SYMATTR InstName C5
SYMATTR Value 22n
SYMBOL res 800 -288 R0
SYMATTR InstName R12
SYMATTR Value 3k
SYMBOL res 800 560 R0
SYMATTR InstName R15
SYMATTR Value 3k
SYMBOL npn 1040 400 R0
SYMATTR InstName Q5
SYMATTR Value 2N3904
SYMBOL pnp 752 32 M180
SYMATTR InstName Q4
SYMATTR Value 2N3906
SYMBOL res 1472 80 R0
SYMATTR InstName R9
SYMATTR Value 5
SYMBOL res 1472 272 R0
SYMATTR InstName R10
SYMATTR Value 5
SYMBOL res 1088 560 R0
SYMATTR InstName R8
SYMATTR Value 300
SYMBOL res 1088 -336 R0
SYMATTR InstName R17
SYMATTR Value 300
SYMBOL cap 1200 -304 R0
SYMATTR InstName C2
SYMATTR Value 100n
SYMBOL cap 1216 624 R0
SYMATTR InstName C3
SYMATTR Value 100n
SYMBOL cap 320 288 R90
WINDOW 0 0 32 VBottom 2
WINDOW 3 32 32 VTop 2
SYMATTR InstName C6
SYMATTR Value 500p
SYMBOL res 192 288 R90
WINDOW 0 0 56 VBottom 2
WINDOW 3 32 56 VTop 2
SYMATTR InstName R13
SYMATTR Value 10
TEXT -288 920 Left 2 !.ac oct 100 1 1Gig
TEXT -16 160 Left 2 ;(+)
TEXT 408 160 Left 2 ;(-)
TEXT -296 944 Left 2 ;.tran 20u
TEXT -288 888 Left 2 !.op
TEXT -152 160 Left 2 ;pot
TEXT -288 848 Left 2 ;.step param R5 3k 5k 100
TEXT -312 1016 Left 2 !.net I(RL) V3
TEXT -280 720 Left 2 !.param freq=2Meg
TEXT -280 752 Left 2 !.four {freq} 10 5 V(out)
